Version 4
SHEET 1 880 680
WIRE 208 80 144 80
WIRE 448 80 448 64
WIRE 448 80 288 80
WIRE 144 96 144 80
WIRE 144 96 128 96
WIRE -80 144 -80 128
WIRE 16 144 -80 144
WIRE 144 144 144 96
WIRE 144 144 96 144
WIRE 224 144 144 144
WIRE -80 160 -80 144
WIRE 144 160 144 144
WIRE 352 160 352 128
WIRE 352 160 288 160
WIRE 368 160 352 160
WIRE 448 160 448 80
WIRE 496 160 448 160
WIRE 240 176 208 176
WIRE 224 224 224 144
WIRE 240 224 224 224
WIRE 144 256 144 240
WIRE 208 256 208 176
WIRE 208 256 144 256
WIRE -80 272 -80 240
WIRE 144 272 144 256
WIRE 144 272 -80 272
WIRE 288 272 288 240
WIRE 288 272 144 272
WIRE 496 272 496 240
WIRE 496 272 288 272
WIRE 288 304 288 272
FLAG 288 304 0
FLAG -80 128 V1
FLAG 128 96 VX
FLAG 448 64 V2
FLAG 352 128 VY
SYMBOL res 112 128 R90
WINDOW 0 0 56 VBottom 2
WINDOW 3 32 56 VTop 2
SYMATTR InstName R1
SYMATTR Value 1000
SYMBOL res 304 64 R90
WINDOW 0 0 56 VBottom 2
WINDOW 3 32 56 VTop 2
SYMATTR InstName R2
SYMATTR Value 2000
SYMBOL res 464 144 R90
WINDOW 0 0 56 VBottom 2
WINDOW 3 32 56 VTop 2
SYMATTR InstName ROUT
SYMATTR Value 50
SYMBOL res 128 144 R0
SYMATTR InstName RIN
SYMATTR Value 100k
SYMBOL voltage -80 144 R0
WINDOW 123 0 0 Left 0
WINDOW 39 0 0 Left 0
SYMATTR InstName V1
SYMATTR Value 1
SYMBOL e 288 144 R0
SYMATTR InstName E1
SYMATTR Value 50k
SYMBOL res 480 144 R0
SYMATTR InstName RL
SYMATTR Value 22k
TEXT -114 328 Left 2 !.op
