Version 4
SHEET 1 880 680
WIRE 144 16 -64 16
WIRE 240 16 144 16
WIRE 368 16 288 16
WIRE 384 16 368 16
WIRE 512 16 464 16
WIRE 576 16 512 16
WIRE 144 32 144 16
WIRE 288 32 288 16
WIRE 240 48 240 16
WIRE 144 128 144 112
WIRE 240 128 240 96
WIRE 240 128 144 128
WIRE 288 128 288 112
WIRE 352 128 288 128
WIRE -64 176 -64 16
WIRE 144 192 144 128
WIRE 144 192 80 192
WIRE 240 192 144 192
WIRE 512 192 512 16
WIRE 512 192 320 192
WIRE 144 224 144 192
WIRE -64 320 -64 256
WIRE 144 320 144 304
WIRE 144 320 -64 320
WIRE 336 320 144 320
WIRE 352 320 352 128
WIRE 352 320 336 320
WIRE 336 336 336 320
FLAG 336 336 0
FLAG 576 16 V2
FLAG 80 192 VX
FLAG 368 16 VY
DATAFLAG -16 16 ""
DATAFLAG 544 16 ""
DATAFLAG 144 192 ""
DATAFLAG 304 16 ""
SYMBOL res 128 208 R0
SYMATTR InstName R1
SYMATTR Value 10k
SYMBOL res 336 176 R90
WINDOW 0 0 56 VBottom 2
WINDOW 3 32 56 VTop 2
SYMATTR InstName R2
SYMATTR Value 12k
SYMBOL voltage -64 160 R0
WINDOW 123 0 0 Left 0
WINDOW 39 0 0 Left 0
SYMATTR InstName V1
SYMATTR Value 1
SYMBOL e 288 16 R0
SYMATTR InstName E1
SYMATTR Value 200k
SYMBOL res 480 0 R90
WINDOW 0 0 56 VBottom 2
WINDOW 3 32 56 VTop 2
SYMATTR InstName Rout
SYMATTR Value 75
SYMBOL res 128 16 R0
SYMATTR InstName Rin
SYMATTR Value 300k
TEXT 400 280 Left 1 !.op
TEXT 392 256 Left 1 ;Non-inverting op amp circuit
RECTANGLE Normal 464 -32 112 144 2
